Circuit: * Z:\home\niels\Desktop\Uni-Notes\Tri 2\ECEN 204\Project 2\AMP_Simulation.asc

WARNING: Node N003 is floating.

WARNING: Less than two connections to node N003.  This node is used by C3.
Direct Newton iteration for .op point succeeded.

Date: Sun Oct 13 00:06:16 2019
Total elapsed time: 0.095 seconds.

tnom = 27
temp = 27
method = trap
totiter = 7
traniter = 0
tranpoints = 0
accept = 0
rejected = 0
matrix size = 11
fillins = 0
solver = Normal
Matrix Compiler1:      33 opcodes
Matrix Compiler2: 847 bytes object code size
